omf/static/testFiles/lehigh4mgs/circuit_plus_mgAll.dss
clear
set defaultbasefrequency=60
new object=circuit.lehigh basekv=115 pu=1.0001 phases=3 bus1=sourcebus angle=30 mvasc3=20000 mvasc1=21000
edit object=vsource.source basekv=115 bus1=sourcebus.1.2.3 pu=1.00 r1=0 x1=0.0001 r0=0 x0=0.0001
new object=vsource.secondsource basekv=4.16 bus1=680.1.2.3 pu=1.00 r1=0 x1=0.0001 r0=0 x0=0.0001
new object=transformer.sub phases=3 windings=2 xhl=0.008 buses=[sourcebus.1.2.3,650.1.2.3] conns=[delta,wye] kvs=[115,4.16] kvas=[5000,5000] %rs=[0.0005,0.0005]
new object=transformer.reg1 phases=1 bank=reg1 xhl=0.01 kvas=[1666,1666] buses=[650.1,rg60.1] kvs=[2.4,2.4] %loadloss=0.01
new object=regcontrol.reg1 transformer=reg1 winding=2 vreg=121 band=2 ptratio=20 ctprim=700 r=3 x=9
new object=transformer.reg2 phases=1 bank=reg1 xhl=0.01 kvas=[1666,1666] buses=[650.2,rg60.2] kvs=[2.4,2.4] %loadloss=0.01
new object=regcontrol.reg2 transformer=reg2 winding=2 vreg=121 band=2 ptratio=20 ctprim=700 r=3 x=9
new object=transformer.reg3 phases=1 bank=reg1 xhl=0.01 kvas=[1666,1666] buses=[650.3,rg60.3] kvs=[2.4,2.4] %loadloss=0.01
new object=regcontrol.reg3 transformer=reg3 winding=2 vreg=121 band=2 ptratio=20 ctprim=700 r=3 x=9
new object=transformer.xfm1 phases=3 windings=2 xhl=2 buses=[633.1.2.3,634.1.2.3] conns=[wye,wye] kvs=[4.16,0.480] kvas=[500,500] %rs=[0.55,0.55] xht=1 xlt=1
new object=linecode.mtx601 nphases=3 basefreq=60 rmatrix=[0.3465|0.1560,0.3375|0.1580,0.1535,0.3414] xmatrix=[1.0179|0.5017,1.0478|0.4236,0.3849,1.0348] units=mi
new object=linecode.mtx602 nphases=3 basefreq=60 rmatrix=[0.7526|0.1580,0.7475|0.1560,0.1535,0.7436] xmatrix=[1.1814|0.4236,1.1983|0.5017,0.3849,1.2112] units=mi
new object=linecode.mtx603 nphases=2 basefreq=60 rmatrix=[1.3238|0.2066,1.3294] xmatrix=[1.3569|0.4591,1.3471] units=mi
new object=linecode.mtx604 nphases=2 basefreq=60 rmatrix=[1.3238|0.2066,1.3294] xmatrix=[1.3569|0.4591,1.3471] units=mi
new object=linecode.mtx605 nphases=1 basefreq=60 rmatrix=[1.3292] xmatrix=[1.3475] units=mi
new object=linecode.mtx606 nphases=3 units=mi rmatrix=[0.791721|0.318476,0.781649|0.28345,0.318476,0.791721] xmatrix=[0.438352|0.0276838,0.396697|-0.0184204,0.0276838,0.438352] cmatrix=[383.948|0,383.948|0,0,383.948]
new object=linecode.mtx607 nphases=1 basefreq=60 rmatrix=[1.3425] xmatrix=[0.5124] cmatrix=[236] units=mi
new object=loadshape.solar_634_shape npts=8760 interval=1 useactual=yes mult=[0.0,0.0,0.0,0.0,0.0,0.0,0.0,0.0,15.573260498977016,36.254152392878254,49.93053620094359,57.45738414262149,60.415988449430614,58.179937757249256,51.5282816423427,40.00984533738784,21.675419050166653,1.4478824694763064,0.0,0.0,0.0,0.0,0.0,0.0,0.0,0.0,0.0,0.0,0.0,0.0,0.0,0.0,5.753271209147158,19.26670876996312,33.03507196820331,40.76233190011129,47.2807764844198,55.6142281731266,33.81451800735731,36.72792554485639,18.643270877506524,0.6597142467712414,0.0,0.0,0.0,0.0,0.0,0.0,0.0,0.0,0.0,0.0,0.0,0.0,0.0,0.0,7.302251715238048,32.00248437462416,45.487376607454834,53.53815025652948,56.78954240663222,54.744388595352504,27.471706482736096,30.904480404412052,15.036846210586695,0.5986589619138069,0.0,0.0,0.0,0.0,0.0,0.0,0.0,0.0,0.0,0.0,0.0,0.0,0.0,0.0,10.85673974374019,32.030831471165115,46.36098258267145,40.07962280579635,32.68459877460609,21.38877638164766,50.119054304513135,23.23768106302848,12.63566872526817,0.4852705757499997,0.0,0.0,0.0,0.0,0.0,0.0,0.0,0.0,0.0,0.0,0.0,0.0,0.0,0.0,7.095099855900322,24.1057365578035,30.46757830108158,40.14682326542839,38.91540953317389,32.21280793707137,32.744266439353126,24.993020502679723,12.097470353878771,0.9735146231651342,0.0,0.0,0.0,0.0,0.0,0.0,0.0,0.0,0.0,0.0,0.0,0.0,0.0,0.0,5.843268284878571,7.700498686921767,20.514575712098026,12.4245522370436,26.131067224648984,27.75577214247864,22.992072303488342,12.36052348052103,8.400255685450157,1.4635427535793497,0.0,0.0,0.0,0.0,0.0,0.0,0.0,0.0,0.0,0.0,0.0,0.0,0.0,0.0,16.996364037910528,39.72776199208872,55.65942494243665,64.99117018485137,68.29370604759443,66.18452347979215,59.06979871090193,46.50351099115357,26.45914026503552,2.7441178840307376,0.0,0.0,0.0,0.0,0.0,0.0,0.0,0.0,0.0,0.0,0.0,0.0,0.0,0.0,4.729604030563417,28.01624826034445,38.162526507561765,41.016068148869465,26.50156179412478,26.983065972432275,29.823127875524698,18.079302418352626,12.032053977245807,0.6240325867896238,0.0,0.0,0.0,0.0,0.0,0.0,0.0,0.0,0.0,0.0,0.0,0.0,0.0,0.0,0.4166824960075569,0.8317791404603753,2.944728105705166,11.057944659747644,14.41618355835089,10.295150061918395,4.402522147398588,2.2011619579771224,5.032898140407166,0.1024856567249795,0.0,0.0,0.0,0.0,0.0,0.0,0.0,0.0,0.0,0.0,0.0,0.0,0.0,0.0,0.2797045679670137,7.329409423112944,8.067821553288088,8.310060378274402,9.551583914190354,15.16728250096394,22.46656074453685,16.706549666282058,6.365806372164927,0.2697929957498977,0.0,0.0,0.0,0.0,0.0,0.0,0.0,0.0,0.0,0.0,0.0,0.0,0.0,0.0,15.133781386870089,37.22033245260271,52.73511467549874,62.00203823561351,65.55018285789671,63.77383088514519,56.93881068422199,45.19220998682912,26.1203627266545,3.177650052807392,0.0,0.0,0.0,0.0,0.0,0.0,0.0,0.0,0.0,0.0,0.0,0.0,0.0,0.0,15.736999672003767,37.44354105893217,52.31545870782605,61.30287593141817,56.83533387027529,53.642023533364856,56.501710349447166,44.550336570048685,25.87832213311253,3.5037407787505086,0.0,0.0,0.0,0.0,0.0,0.0,0.0,0.0,0.0,0.0,0.0,0.0,0.0,0.0,6.771982601622341,22.030055104095062,41.743775781050125,44.07834750106963,48.212464272828704,52.70042417273884,44.640730108668784,36.29915093074395,23.424415083598944,3.285091495640929,0.0,0.0,0.0,0.0,0.0,0.0,0.0,0.0,0.0,0.0,0.0,0.0,0.0,0.0,7.024331230270114,28.830583033702695,30.111554627042775,57.276597065381296,61.31952737274292,60.028445975741384,53.70327704966663,42.145987381620685,23.044405404794716,3.44665012277992,0.0,0.0,0.0,0.0,0.0,0.0,0.0,0.0,0.0,0.0,0.0,0.0,0.0,0.0,8.154646925910024,20.628955255483543,33.74493877039316,36.421261500458826,39.57968310316501,38.08204454115879,30.561341774255496,19.69270814385477,17.998027526172276,3.06644221253135,0.0,0.0,0.0,0.0,0.0,0.0,0.0,0.0,0.0,0.0,0.0,0.0,0.0,0.0,6.278386305209963,29.77575056032688,51.754860183225965,60.39537237921902,63.96334014593644,62.483145951032334,55.97619879049568,33.17006758180043,26.67580723370168,4.9928553886500175,0.0,0.0,0.0,0.0,0.0,0.0,0.0,0.0,0.0,0.0,0.0,0.0,0.0,0.0,0.8280127430178712,19.647313143100376,18.415899410845885,18.861325466283077,27.461993141963323,44.25853988397679,22.385484083800844,16.31722310959374,2.125437546238357,0.0335011140938521,0.0,0.0,0.0,0.0,0.0,0.0,0.0,0.0,0.0,0.0,0.0,0.0,0.0,0.0,10.72253705592044,11.912520416307387,6.300191764087619,7.795848011650424,62.03296234093093,60.64018821298177,29.96625097833985,43.043777593047054,25.38492406814449,5.050540738953633,0.0,0.0,0.0,0.0,0.0,0.0,0.0,0.0,0.0,0.0,0.0,0.0,0.0,0.0,0.0,5.479513584510413,20.63153226426,54.80722796320901,59.34058286387353,22.30401096017615,14.685778322656448,17.04711128766216,6.380079036157574,5.269982947840582,0.0,0.0,0.0,0.0,0.0,0.0,0.0,0.0,0.0,0.0,0.0,0.0,0.0,0.0,16.65738826808516,39.40464473781074,54.562610360890595,63.25644681541173,66.41665250111699,64.96718418008595,58.99407429916315,47.52717816973731,28.726115062534294,6.454217596341601,0.0,0.0,0.0,0.0,0.0,0.0,0.0,0.0,0.0,0.0,0.0,0.0,0.0,0.0,4.869951893157779,13.030743993842414,34.09323141810262,60.22449687419595,64.43096812313998,63.66044249898138,57.77732969379,46.368713609000785,28.41786516658199,6.598133624934126,0.0,0.0,0.0,0.0,0.0,0.0,0.0,0.0,0.0,0.0,0.0,0.0,0.0,0.0,16.238723457634183,37.78667968908873,52.91907345584842,62.54142599566898,66.58237398858718,65.17334488220197,58.71417149975181,46.8680586172991,28.39665440203736,6.693681181107125,0.0,0.0,0.0,0.0,0.0,0.0,0.0,0.0,0.0,0.0,0.0,0.0,0.0,0.0,16.056152297394902,38.28047421694544,54.34197876333759,64.29280080643338,68.46101338661936,66.99965117892776,60.585476334343305,48.8255941301795,30.401963693004273,7.661645323830673,0.0,0.0,0.0,0.0,0.0,0.0,0.0,0.0,0.0,0.0,0.0,0.0,0.0,0.0,4.395584046846607,15.114751168213228,50.42036609991347,41.846657900663786,63.334351773038264,52.32219857693368,55.20329438900497,38.06281609105758,23.692027533461076,5.073932049386026,0.0,0.0,0.0,0.0,0.0,0.0,0.0,0.0,0.0,0.0,0.0,0.0,0.0,0.0,4.5636843116488945,27.094075581263976,29.440144725055333,44.59355102491531,63.72149778383883,63.04314978129939,47.33905652905644,44.281732962964846,25.786342742937688,5.852386931318318,0.0,0.0,0.0,0.0,0.0,0.0,0.0,0.0,0.0,0.0,0.0,0.0,0.0,0.0,9.090299343205777,18.145313489318617,29.015532971274087,22.37616720591675,11.883380393989066,3.5495322423935844,10.281273860814434,19.703412641849255,8.048791334631225,2.6511473366341898,0.0,0.0,0.0,0.0,0.0,0.0,0.0,0.0,0.0,0.0,0.0,0.0,0.0,0.0,13.515419875259388,24.372952544776947,16.717452395720887,49.41711676009699,67.53348845854163,67.51921579454898,61.865258539017326,50.26455618466041,31.382218185277047,8.700576323628772,0.0,0.0,0.0,0.0,0.0,0.0,0.0,0.0,0.0,0.0,0.0,0.0,0.0,0.0,18.88709555404758,43.006906544399385,59.37071404341357,69.05590595109065,72.5842274289396,70.8913308942562,63.79484341824547,51.86765387505675,33.24599022498354,9.67329802101654,0.0,0.0,0.0,0.0,0.0,0.0,0.0,0.0,0.0,0.0,0.0,0.0,0.0,0.0,9.612242736159104,40.267546215032866,44.601480282689,49.84311613398864,50.10775511218563,52.45204017297792,44.9850581274914,32.543656217678695,19.637798033771944,8.370917431687497,0.0,0.0,0.0,0.0,0.0,0.0,0.0,0.0,0.0,0.0,0.0,0.0,0.0,0.0,1.905995337351408,9.198137248927996,11.308310973951995,31.748946357310334,33.87259982054961,17.87988158534425,14.114078837173194,7.867013100169317,16.673841477965574,3.859169758456289,0.0,0.0,0.0,0.0,0.0,0.0,0.0,0.0,0.0,0.0,0.0,0.0,0.0,0.0,3.0263994607742015,19.631256396108647,39.09421429597067,36.7612284275059,31.4414893871354,38.30941600781942,35.51078447659455,29.91927012603072,9.211815218587615,0.7213642259617029,0.0,0.0,0.0,0.0,0.0,0.0,0.0,0.0,0.0,0.0,0.0,0.0,0.0,0.0,15.318929555885816,35.79266959044933,11.17549590624264,16.45459750052297,24.594971762440345,33.33578906927061,25.890810714106095,45.55695584441899,29.177686292746102,8.717425996397871,0.0,0.0,0.0,0.0,0.0,0.0,0.0,0.0,0.0,0.0,0.0,0.0,0.0,0.0,4.722467698567093,13.648631405857428,15.358972307642969,21.054954629375192,46.242241947510394,40.60909899363468,37.820775497515605,19.6802195628612,12.204118870934938,8.438712585652567,0.0,0.0,0.0,0.0,0.0,0.0,0.0,0.0,0.0,0.0,0.0,0.0,0.0,0.0,16.255573130403278,36.65101174445157,7.244764596378773,12.466775534688514,12.934205280447706,14.315878447513676,15.8626784077168,11.328530581274912,3.047213762430145,2.5924708291088625,0.0,0.0,0.0,0.0,0.0,0.0,0.0,0.0,0.0,0.0,0.0,0.0,0.0,0.0,16.272422803172375,9.399738627824137,24.109106492357316,38.15023615801254,64.42660703136444,63.67451693152967,57.6353959796409,45.883443033250785,28.847036243583112,8.924974318624281,0.0,0.0,0.0,0.0,0.0,0.0,0.0,0.0,0.0,0.0,0.0,0.0,0.0,0.0,4.380914919965275,1.6554307917027156,50.0673158975398,59.512647757562654,63.71594730339723,31.260107615562177,57.87406663862905,47.20643969279143,30.83529763033658,9.88877560101664,0.0,0.0,0.0,0.0,0.0,0.0,0.0,0.0,0.0,0.0,0.0,0.0,0.0,0.0,6.4944585795430925,25.144667557601597,34.589801186180125,33.94713484362232,12.517324552995806,12.204515333823624,19.673479693753563,0.3496802678198527,4.4867705112440746,0.821669336798917,0.0,0.0,0.0,0.0,0.0,0.0,0.0,0.0,0.0,0.0,0.0,0.0,0.0,0.0,16.955330128931667,38.70032841606248,53.941551245766114,63.50185734350752,67.91488575745625,66.99984941037211,60.716903781942264,49.76977049958198,32.347605319224144,10.713814872369376,0.0,0.0,0.0,0.0,0.0,0.0,0.0,0.0,0.0,0.0,0.0,0.0,0.0,0.0,1.343612729752246,8.84389765788827,35.88861360951101,42.72819313365408,52.55967984725579,33.320327016611905,43.59287869387528,48.90825664247025,32.514714426804716,11.119594638938104,0.0,0.0,0.0,0.0,0.0,0.0,0.0,0.0,0.0,0.0,0.0,0.0,0.0,0.0,18.722959918132137,19.196733070110284,25.26221880409659,63.41304965644216,67.42723640437414,41.85676770432524,60.035384076293376,49.52772990604001,33.23687157854379,11.560659602599769,0.0,0.0,0.0,0.0,0.0,0.0,0.0,0.0,0.0,0.0,0.0,0.0,0.0,0.1686949591353144,18.239076962492536,39.21354962546474,53.48680831244482,62.36420708442695,65.71035386492531,65.19653796119,58.48442125575906,47.03596065065704,30.128404299811866,10.019410122838227,0.0,0.0,0.0,0.0,0.0,0.0,0.0,0.0,0.0,0.0,0.0,0.0,0.0,0.1633427101380718,6.266888881438109,13.785411102453628,18.32768641811355,28.17384225859659,64.57270360584472,63.586502170241694,57.79219705211567,47.34758048116316,17.006870304460673,6.363229363388476,0.0,0.0,0.0,0.0,0.0,0.0,0.0,0.0,0.0,0.0,0.0,0.0,0.0,0.0,0.0,0.7639839864953019,3.5588491202776735,5.430946880646545,11.840562402011123,14.321825390843948,9.253642053343846,7.890206179157369,6.158654512827202,2.4983108930462605,0.0,0.0,0.0,0.0,0.0,0.0,0.0,0.0,0.0,0.0,0.0,0.0,0.0,0.1891127979025734,0.214882885667075,10.543335830234982,20.21147983369862,51.47634500392501,73.62216727151598,73.2062777012858,66.69992523508218,54.982662791451965,37.015162907708415,13.525926141809531,0.0,0.0,0.0,0.0,0.0,0.0,0.0,0.0,0.0,0.0,0.0,0.0,0.0,0.6357282420058207,21.34694954689143,43.38711445464796,57.886951682511295,67.39611406761239,71.82638861721891,70.7967744953049,64.6783609656792,40.498287616247325,35.15555372833311,12.694741695682184,0.0,0.0,0.0,0.0,0.0,0.0,0.0,0.0,0.0,0.0,0.0,0.0,0.0,0.7350421956213231,22.00805141377307,45.01637869569748,60.38288379822545,69.96658120639925,74.07433319606082,72.62466664358543,66.0386251367562,54.11698607400906,36.81316506592359,13.922190799049828,0.0,0.0,0.0,0.0,0.0,0.0,0.0,0.0,0.0,0.0,0.0,0.0,0.0,0.8482323503407878,21.83598652008393,43.42993244662589,57.67226702828856,66.461254576094,70.16501088218594,68.89593317550639,62.96544305511719,52.04070992596759,35.2061027466404,13.35405947956474,0.0,0.0,0.0,0.0,0.0,0.0,0.0,0.0,0.0,0.0,0.0,0.0,0.0,0.7455484621714661,20.488607392889183,41.82723121911824,56.11357318142491,65.26373842082207,69.15898630214865,67.76839272008728,62.19808913406808,50.644169400575954,33.582388986032456,11.323574795166351,0.0,0.0,0.0,0.0,0.0,0.0,0.0,0.0,0.0,0.0,0.0,0.0,0.0,0.5998483505798606,18.411538319070356,38.28661939172006,32.0030790689572,35.86581699341164,45.91416890712385,64.27614936510862,51.48506718747607,37.50499280667829,28.042018348108954,9.069881504438516,0.0,0.0,0.0,0.0,0.0,0.0,0.0,0.0,0.0,0.0,0.0,0.0,0.0,0.806801978473243,19.93296465439766,40.70266423536425,54.88334883783647,63.6263466905545,67.005003427925,67.18995336549638,60.75892884814284,37.91235842480175,33.10921052838734,12.617827895277362,0.0,0.0,0.0,0.0,0.0,0.0,0.0,0.0,0.0,0.0,0.0,0.0,0.0,1.0436885544623156,20.964561090755097,41.47497394252193,56.00930344170084,64.79155112039867,50.497874594651314,40.98692812655114,34.87743501192084,50.07286637798138,17.42890504946547,12.693948769904813,0.0,0.0,0.0,0.0,0.0,0.0,0.0,0.0,0.0,0.0,0.0,0.0,0.0,0.0,0.4039956835696484,1.7371021467717516,4.041939150139908,19.173936454010917,32.78530034833199,21.96642281046118,19.96943924015665,48.4564871808141,14.307354495406956,12.482039355902872,0.0,0.0,0.0,0.0,0.0,0.0,0.0,0.0,0.0,0.0,0.0,0.0,0.0,1.278592816007965,22.01598067154676,43.42299434607391,57.64094646008248,66.3998028283479,69.56555899449475,68.00210759296688,62.32991304455573,51.66605249616061,35.67868650995249,9.47506657667422,0.0,0.0,0.0,0.0,0.0,0.0,0.0,0.0,0.0,0.0,0.0,0.0,0.0,0.0,0.0,5.603408237224364,17.675901429116003,26.577682668752235,11.894283123427895,7.424758747841601,10.223984973399505,11.791995698147256,5.10327030314869,4.475669550360904,0.0,0.0,0.0,0.0,0.0,0.0,0.0,0.0,0.0,0.0,0.0,0.0,0.0,1.4181477528249582,2.0237448152907462,6.284135017095891,7.968309368228244,34.05794622100968,44.11224507805216,49.52277411993145,22.90187699631259,20.806570629614264,33.01822229543421,7.872761812055245,0.0,0.0,0.0,0.0,0.0,0.0,0.0,0.0,0.0,0.0,0.0,0.0,0.0,1.7591058370937491,21.375693106321062,35.1892530738713,55.245319455205546,63.83092154111578,67.02879120124608,65.94406873780491,60.7985751370113,13.040853797503871,34.335866705977615,13.665679310070868,0.0,0.0,0.0,0.0,0.0,0.0,0.0,0.0,0.0,0.0,0.0,0.0,0.0,0.0,1.777739592861927,8.039276225302794,10.32547947290277,14.230638926446478,15.49376968979574,9.858446190032266,19.6764531654187,12.327418829315862,11.626868905010102,5.676555640186679,0.0,0.0,0.0,0.0,0.0,0.0,0.0,0.0,0.0,0.0,0.0,0.0,0.0,2.56233964956883,18.878769833385203,36.296970384856195,64.17069023671851,73.58291744553621,67.16973375817346,60.080580845603414,51.919392282030095,41.262073371298285,24.729372681704437,6.3223936858539584,0.0,0.0,0.0,0.0,0.0,0.0,0.0,0.0,0.0,0.0,0.0,0.0,0.0,3.857980369790235,27.634652729985483,49.06129131750253,62.40702507640489,70.04646847846924,73.32283779055909,71.98695608713619,65.83345559186189,55.22767685665908,39.25418707155492,16.589989577008772,0.0,0.0,0.0,0.0,0.0,0.0,0.0,0.0,0.0,0.0,0.0,0.0,0.0,0.5409736116101916,5.721157715163701,14.768639066391536,22.27843910385599,17.215806246797477,20.554618463855174,53.48284368355798,30.143271658137547,44.92816570296515,35.60791788432228,14.735534415186368,0.0529277956393994,0.0,0.0,0.0,0.0,0.0,0.0,0.0,0.0,0.0,0.0,0.0,0.0,4.379527299854879,26.652812386157972,48.15160721941562,62.158839308088304,70.11684064121074,73.6802490847083,72.26130840610597,64.12688108751885,51.946549989904995,35.572236224340664,13.20617882208537,0.0231930789880514,0.0,0.0,0.0,0.0,0.0,0.0,0.0,0.0,0.0,0.0,0.0,0.0,4.549808110544932,28.759219713739466,50.32343092363008,64.50371906321361,72.70633799865446,75.71866302688036,74.28148505539855,67.19411622582757,55.371791116695945,38.53163345692716,16.46510376707311,0.1397531682613357,0.0,0.0,0.0,0.0,0.0,0.0,0.0,0.0,0.0,0.0,0.0,0.0,4.976402178769605,27.967086862147553,49.45160903141255,63.68343734652508,72.19569379802866,75.60705872371564,73.6536860711664,67.48611114334382,56.52966098309943,40.00984533738784,17.485599242547377,0.3161791537260006,0.0,0.0,0.0,0.0,0.0,0.0,0.0,0.0,0.0,0.0,0.0,0.0,2.9996382157879884,25.509215183747123,45.77857859919371,34.717660467780924,34.700414332123145,55.27505417185689,65.62392495519205,56.47415617868358,49.50275274405286,37.90561855569412,16.498406649722618,0.2475910739835578,0.0,0.0,0.0,0.0,0.0,0.0,0.0,0.0,0.0,0.0,0.0,0.0,1.9484168664406647,16.655207722197396,17.249902055224357,15.084025294340169,16.15725033400949,10.621240787861511,25.012447184225273,8.24999625063868,12.61227741483578,5.416079522320871,0.7098668021898484,0.0,0.0,0.0,0.0,0.0,0.0,0.0,0.0,0.0,0.0,0.0,0.0,0.0,5.005542201087926,20.936213994214143,48.031677195588514,64.04540796389416,67.90100955635228,75.56424073173771,64.41431668181522,59.546941797433895,46.755661388357,32.763296658009985,7.823996876747034,0.0,0.0,0.0,0.0,0.0,0.0,0.0,0.0,0.0,0.0,0.0,0.0,0.0,4.0821801333413985,30.02968504052939,51.50865672935281,66.13774085892734,75.27977860910647,79.00890854007419,77.54635694371657,70.83007737795441,59.369128191858834,42.50002874121606,17.63903038046833,0.2002137587857433,0.0,0.0,0.0,0.0,0.0,0.0,0.0,0.0,0.0,0.0,0.0,0.0,4.61799972739869,29.953564165901945,50.21757533235128,62.92203036880624,70.44194020993214,72.95789370152488,71.97446750614262,66.10879906805337,54.54873415978664,39.73172662097557,17.77581007706453,0.4384879548852122,0.0,0.0,0.0,0.0,0.0,0.0,0.0,0.0,0.0,0.0,0.0,0.0,4.377941448300141,25.001940917675128,34.5892064918471,46.835152197538264,48.13495577809086,49.42722656375844,46.94338656614917,36.7949277730441,36.9420155047461,32.21637610306953,12.909426349904916,0.286047974185968,0.0,0.0,0.0,0.0,0.0,0.0,0.0,0.0,0.0,0.0,0.0,0.0,3.551911019725692,14.645933802343638,25.893387722882544,58.04771738387292,55.060765980522845,45.91872823034373,34.60744378472659,36.60185034625467,25.47571406965327,16.89883416729411,8.07654373683915,0.0,0.0,0.0,0.0,0.0,0.0,0.0,0.0,0.0,0.0,0.0,0.0,0.0,2.262019011390215,19.52559903627419,40.47469807437059,36.33007503606135,75.93235652388138,78.0809871491078,79.03983264539161,72.13642259617029,60.273063578059805,42.63006856870463,19.12457682436968,0.6291866043425242,0.0,0.0,0.0,0.0,0.0,0.0,0.0,0.0,0.0,0.0,0.0,0.0,6.178279425817092,32.183271451864364,52.85207122766071,66.37145573180693,73.87253358572035,76.81825284864722,75.13011386862803,67.20065786349087,56.819277123283555,40.82873943396597,18.622853038739265,0.6232396610122546,0.0,0.0,0.0,0.0,0.0,0.0,0.0,0.0,0.0,0.0,0.0,0.0,8.532674290270828,32.73058846969351,53.62854379514958,67.39789815061148,75.55591501107531,78.5864773321807,76.95939363701895,69.91722157675802,57.85127002252968,41.04124354230094,18.737232582124783,0.6226449666792275,0.0,0.0,0.0,0.0,0.0,0.0,0.0,0.0,0.0,0.0,0.0,0.0,7.7135819622483615,32.97421491479022,52.59516327579307,65.46137517083135,73.7145431245795,77.18379163201446,76.36529399832501,70.4403543583774,59.08863069811444,42.75138621264214,19.87825277575918,0.738015667286458,0.0,0.0,0.0,0.0,0.0,0.0,0.0,0.0,0.0,0.0,0.0,0.0,7.76135574033486,30.89060420330809,49.45696128040979,61.627182574362195,68.82873271587434,72.03651394822177,70.74741486566366,57.977939915464425,20.412288286817382,18.24660975737754,4.39756636129003,0.1137848490524917,0.0,0.0,0.0,0.0,0.0,0.0,0.0,0.0,0.0,0.0,0.0,0.0,1.4122008094946887,16.995769343577503,25.82321379158536,20.815094581720984,33.26759745241686,37.32143048921729,53.90943775178265,63.841229576221565,41.68331519052571,33.16154362969371,16.007189130642352,0.5988571933581491,0.0,0.0,0.0,0.0,0.0,0.0,0.0,0.0,0.0,0.0,0.0,0.0,0.8430783327878877,4.1426407238658065,9.346810832184737,43.56968561488723,46.05867963004941,45.409868112716985,43.965355577794504,42.26115985078357,40.77957803576907,30.425156771992327,0.9304983997428508,0.0,0.0,0.0,0.0,0.0,0.0,0.0,0.0,0.0,0.0,0.0,0.0,0.0,8.118172340151038,9.77776599218494,6.9492015128643745,17.307785636972316,34.67127430980482,5.034483991961904,4.669936365816378,17.377959568269496,8.254555573858552,21.49562313014817,10.227553139397664,0.7703273927142561,0.0,0.0,0.0,0.0,0.0,0.0,0.0,0.0,0.0,0.0,0.0,0.0,7.865823711503263,14.633841684238758,18.380812445197293,36.07653701874753,54.20341498374231,60.518474106155594,60.661597208970754,61.66821648334106,55.87906538276794,41.717807461841275,19.441350672428708,0.8270215857961596,0.0,0.0,0.0,0.0,0.0,0.0,0.0,0.0,0.0,0.0,0.0,0.0,10.395256941311269,33.87081573755054,54.17090502687016,68.3278018560213,77.39728689757114,81.02472409759125,79.44620710629336,72.6193143945882,60.569023124462895,43.75582494112467,20.506844685768677,1.039723925575469,0.0,0.0,0.0,0.0,0.0,0.0,0.0,0.0,0.0,0.0,0.0,0.0,11.332296978717416,36.021032214331676,56.14687606407442,69.73683096240651,77.88513448209758,80.67920669010259,78.673500936247,71.54747697502926,59.773322106872826,43.24240550027806,20.422001627590163,0.9967077021531856,0.0,0.0,0.0,0.0,0.0,0.0,0.0,0.0,0.0,0.0,0.0,0.0,10.807776576987637,33.176807450908065,51.73642465890212,64.35048615673699,71.12306345269236,73.26435951447812,71.43111511720032,62.53448789511699,54.99554783533422,33.02119576709935,15.576035739197808,0.8718218922175238,0.0,0.0,0.0,0.0,0.0,0.0,0.0,0.0,0.0,0.0,0.0,0.0,6.381863119156655,22.150183359366512,49.475396804733634,58.09509469907074,71.58137455201181,74.32410481593215,72.14316246527794,65.6526685146217,55.42947646699956,40.63328322984445,19.364436872023887,0.9883819814908082,0.0,0.0,0.0,0.0,0.0,0.0,0.0,0.0,0.0,0.0,0.0,0.0,6.52677030497089,18.50391417213387,20.630342875593943,28.509646325312485,33.82819597701693,33.94535076062325,17.60572749781882,25.57145985727061,18.530675417120086,7.774240784217112,14.01972066966625,0.8902574165413596,0.0,0.0,0.0,0.0,0.0,0.0,0.0,0.0,0.0,0.0,0.0,0.0,3.9529332316302055,2.114534816799529,11.838778319012045,14.17790936225142,19.821756814121617,31.720599260769383,37.63939372594238,30.422579763215875,19.38941403401102,13.355447099675136,4.075242032789418,0.0,0.0,0.0,0.0,0.0,0.0,0.0,0.0,0.0,0.0,0.0,0.0,0.0,8.976712725597626,11.84353587367626,39.953745838638966,62.98486973666275,69.93545886963751,34.07321004222404,30.852741997438702,30.64777068398875,27.668550306968022,18.597875876752138,2.679890896063826,1.1142589486481815,0.0,0.0,0.0,0.0,0.0,0.0,0.0,0.0,0.0,0.0,0.0,0.0,11.61200154668443,34.392759130503855,52.23735551875518,64.01706086735322,71.12564046146882,73.90147537659433,71.8769376355262,65.92583144492541,55.16384633158086,40.18547839707514,19.619362509448106,1.5632531700835368,0.0,0.0,0.0,0.0,0.0,0.0,0.0,0.0,0.0,0.0,0.0,0.0,4.984331436543298,33.26165050908658,51.7643752925544,52.0627136162896,64.7618164037473,56.26977955956664,72.96047071030134,29.52201431156871,43.40634290474916,20.716771785327193,11.78366997748488,1.666333521141543,0.0,0.0,0.0,0.0,0.0,0.0,0.0,0.0,0.0,0.0,0.0,0.0,0.3919035654647669,1.652060857148896,3.141373698492747,23.2035852546016,9.708384986665129,5.674375094298915,40.82378364785741,9.593608980390924,11.923423145746217,9.320842512975894,7.36310876865114,0.9215779847474465,0.0,0.0,0.0,0.0,0.0,0.0,0.0,0.0,0.0,0.0,0.0,0.0,6.740463801971911,21.888716084278993,43.97526715001162,57.8649479921893,74.3744556027951,77.57153233714803,75.20583828036679,68.84419476853306,57.740260413698,42.23142513413222,20.888638447571985,2.0126438544075764,0.0,0.0,0.0,0.0,0.0,0.0,0.0,0.0,0.0,0.0,0.0,0.0,0.6967835268632554,0.6914312778660127,9.683209593233654,9.545042276527058,23.375650148290735,16.32574706170046,33.07729526584822,14.024478224330466,11.017108982213127,9.276438669443214,4.548618721878879,0.1225070326035538,0.0,0.0,0.0,0.0,0.0,0.0,0.0,0.0,0.0,0.0,0.0,0.0,12.324841820539412,18.672410899824843,50.71890265509301,63.607316471897626,72.16695023859901,75.91709270266703,48.726874870897035,47.19870866646208,58.2106636311223,34.781887455747835,20.95385659276061,2.0007499677470375,0.0,0.0,0.0,0.0,0.0,0.0,0.0,0.0,0.0,0.0,0.0,0.0,15.194836671727524,39.2545835344436,57.79358467222607,70.86536257504734,78.0524418211225,79.93782108826231,77.44724122154541,70.46691737191928,59.01469036937477,43.20969731196158,21.5697616903322,2.09411697803227,0.0,0.0,0.0,0.0,0.0,0.0,0.0,0.0,0.0,0.0,0.0,0.0608570534130922,14.947642060632653,37.622345821728935,54.9340960875881,67.07616851644391,74.17364714967633,76.2762880798153,74.6944011539636,67.80843547184442,56.4174619856017,41.11102101070943,20.41169359248436,2.1268251663487527,0.0,0.0,0.0,0.0,0.0,0.0,0.0,0.0,0.0,0.0,0.0,0.0116956552161968,14.29387475719168,36.039665970099854,53.99705605018195,67.26904771178897,75.14359360684331,78.34800490463691,76.6317170595211,69.84665118257216,58.6059371311409,42.5896293540588,21.21195393329431,2.3347699514638465,0.0,0.0,0.0,0.0,0.0,0.0,0.0,0.0,0.0,0.0,0.0,0.1573957668078022,14.658224151892862,27.775991749801555,47.42370135579062,54.76282411967634,72.43039982812996,59.89939730547453,58.99209198471973,54.86253453618052,41.982049977149586,29.93968796479798,15.22358023115716,1.9932171728620292,0.0,0.0,0.0,0.0,0.0,0.0,0.0,0.0,0.0,0.0,0.0,0.1518452863662172,14.695095200540536,36.62880982268523,54.03908111638252,65.8639832342906,73.13431968698954,76.22970369039487,75.05260537389017,68.82437162409882,37.56565162864703,42.06966827554889,20.907668666228847,2.428533424637764,0.0,0.0,0.0,0.0,0.0,0.0,0.0,0.0,0.0,0.0,0.0,0.2081430165594361,14.87508935200336,36.13045597160864,52.888942276308384,65.43639800884422,73.39063294452416,77.47915648408451,77.3554600628149,71.31574441659309,60.27266711517112,44.46906167786834,22.3698237996978,2.6348923581981194,0.0,0.0,0.0,0.0,0.0,0.0,0.0,0.0,0.0,0.0,0.0,0.2598814235327817,16.983478994028278,40.10479819922782,57.642730543081555,70.0960263395548,77.52811965083707,80.11662585105908,77.55884552471012,70.49942732879144,58.914979952870574,42.675265338014675,21.44606526906259,2.704868058050958,0.0,0.0,0.0,0.0,0.0,0.0,0.0,0.0,0.0,0.0,0.0,0.2604761178658086,11.317627851836084,25.71160948842064,42.85862942403133,68.43762207618695,75.7361073939825,77.90000184042326,75.5670159719585,68.69215125072249,58.1052045027322,42.58427710506156,21.75550455368095,2.7861429502313095,0.0,0.0,0.0,0.0,0.0,0.0,0.0,0.0,0.0,0.0,0.0,0.3877407051335781,15.8575243901639,37.0684871662365,53.62120923170891,65.3608718285498,71.799230909344,73.45248115515896,71.31118509337323,55.80948614580378,53.89179515323618,39.100954165078306,19.914925592962508,2.870391314076796,0.0,0.0,0.0,0.0,0.0,0.0,0.0,0.0,0.0,0.0,0.0,0.3542395910397261,5.2069453485397235,25.608529137362627,16.935308753053096,40.10142826467399,51.41390209895718,51.32767142066827,61.98954965461996,26.161991329966387,15.7839805243129,26.1939065925055,10.411908382636025,2.7167619447114975,0.0,0.0,0.0,0.0,0.0,0.0,0.0,0.0,0.0,0.0,0.0,0.4773413179763068,15.592092486189536,35.853526643862416,33.446005752324936,43.544708452900096,48.83510923950794,30.63151570555268,34.416943366713625,18.434731398058403,13.627024178424112,3.137409069605901,2.3829401924390305,0.0592712018583537,0.0,0.0,0.0,0.0,0.0,0.0,0.0,0.0,0.0,0.0,0.0,0.5084636547380512,2.5034649105991607,3.0507819284283073,9.023098883573727,18.075932483798805,18.066615605914716,20.493761410442083,28.327868090850572,11.661361176325666,14.233414166667272,9.286944935993356,4.156715156414111,0.4345233259983658,0.0,0.0,0.0,0.0,0.0,0.0,0.0,0.0,0.0,0.0,0.0,0.7354386585100078,2.601787706992952,8.167135506903591,16.04980889117595,22.14344349025887,19.271268093182993,19.516480389834445,31.227399427245693,33.40873824078858,35.59800631210517,17.07149375531627,4.184467558622036,3.25099568721405,0.0,0.0,0.0,0.0,0.0,0.0,0.0,0.0,0.0,0.0,0.0,0.8924379624291252,10.998078763556263,16.446668242749276,22.87630513999243,23.556437225530928,35.98515232290572,43.5742449381071,45.78432731107963,52.99341024747679,55.05600842585863,39.47085404022108,19.915520287295536,3.374890339928,0.0,0.0,0.0,0.0,0.0,0.0,0.0,0.0,0.0,0.0,0.0,1.239144758583843,17.780171168840063,39.35171694217134,56.01029459892256,67.96444361854182,75.32973293308073,77.70335624763568,76.17657766331112,69.82226871491807,58.69652890120534,43.09730008301947,22.247316767094247,3.366564619265623,0.0,0.0,0.0,0.0,0.0,0.0,0.0,0.0,0.0,0.0,0.0,1.3695810489610898,19.45027108742411,41.77390696059015,58.14247201426856,69.22777261333543,75.39039175504949,77.06941208862895,75.03555746967675,68.08219309648116,56.549682358978,41.01368937153735,21.21036808173957,3.3760797285940543,0.0,0.0,0.0,0.0,0.0,0.0,0.0,0.0,0.0,0.0,0.0,1.49605271045149,19.379898924682585,41.11300332515285,56.63948120326507,68.01558733118215,74.05906937484646,75.15846096516897,72.13166504150607,66.44718014354571,56.593689739622,41.784214995695955,21.883562066726093,3.50215492719577,0.0,0.0,0.0,0.0,0.0,0.0,0.0,0.0,0.0,0.0,0.0,1.7575199855390105,18.19169964729472,38.38969974277806,53.56966905617991,56.60042960872965,70.76049814099025,62.09044945979019,70.68180025758636,54.12729410911485,35.31156187503052,39.89308701667022,20.396429771270004,3.670849886331085,0.0,0.0,0.0,0.0,0.0,0.0,0.0,0.0,0.0,0.0,0.0,1.3327100003134182,10.54987746789828,28.609356741816672,28.069176055983853,34.66750791236231,48.48067141702387,74.65297078209605,71.90310418617938,36.43454300722976,30.406919479112823,26.825471974180132,11.386414163022868,2.5488599113535524,0.0,0.0,0.0,0.0,0.0,0.0,0.0,0.0,0.0,0.0,0.0,2.09153996925582,12.628334161827503,37.52600533977857,46.48685954982881,55.70481994319103,9.302803451540743,16.399687390440146,18.665076336384185,4.466550903921158,17.33831327940103,8.782842373030835,11.610812158018376,3.600874186478245,0.0,0.0,0.0,0.0,0.0,0.0,0.0,0.0,0.0,0.0,0.0,2.0497131344995903,18.76875138177521,15.29771879134119,17.490753260100274,66.45728994720716,73.45862632993358,75.89171907779121,36.893052337993545,68.02629182917666,57.28254400871157,42.20268157470259,22.159103774361917,3.6409169382353945,0.0,0.0,0.0,0.0,0.0,0.0,0.0,0.0,0.0,0.0,0.0,2.189664534205268,19.75415989160089,40.59700687552979,55.47308738475486,66.25251686520156,72.4656850252229,74.38694418378866,72.59057083515856,66.47394138853193,56.216653532482916,41.360792630580754,21.692665185824435,3.7895905214921344,0.0,0.0,0.0,0.0,0.0,0.0,0.0,0.0,0.0,0.0,0.0,1.7156931507827806,10.97647153612295,26.746179396443203,52.92700271362211,54.63972239273975,57.07162575193134,72.39868279703519,62.31008990012148,64.1023003884204,54.030557164275805,39.693467952217496,20.89736063112305,3.899014278769095,0.0,0.0,0.0,0.0,0.0,0.0,0.0,0.0,0.0,0.0,0.0,2.505843687931269,18.876787518941775,38.56156640502285,42.66892193179573,48.46362351281043,69.31083158851487,71.50346959438528,69.73980443407164,63.87294660731635,54.13561982977724,39.65719159790286,21.071209607811262,3.993174214831697,0.0,0.0,0.0,0.0,0.0,0.0,0.0,0.0,0.0,0.0,0.0,2.648966790746424,19.061142762180136,38.714997542943806,53.79228296817633,64.62622609581716,70.77199556476211,73.2798215671368,71.38195371900343,64.8738171698007,43.88308952839243,37.86062001782841,18.90255760670628,3.891085020995402,0.0,0.0,0.0,0.0,0.0,0.0,0.0,0.0,0.0,0.0,0.0,2.8470000036444016,18.22361490983383,29.65681169372149,41.982446440038274,49.049793893730666,51.622838041293974,46.112995045799195,16.25279789018249,7.621206109184839,3.418699489127653,22.12381857726898,7.913399258145421,1.7254064915555545,0.0,0.0,0.0,0.0,0.0,0.0,0.0,0.0,0.0,0.0,0.0,2.9120199173886827,18.758245115225073,37.855069537386825,52.28631868550774,62.372136342200626,54.52494638646556,68.44793011129275,55.0825714394005,39.38799329648599,52.52578227027326,38.93364682605339,20.806967092502948,4.136892011979879,0.0,0.0,0.0,0.0,0.0,0.0,0.0,0.0,0.0,0.0,0.0,2.7302416829267755,15.71915884201296,33.2031722330056,47.81203675525722,52.24052722186465,53.59226744083493,60.77498559513456,69.34413447116437,63.04295154985505,46.713239859267745,35.30839017192103,15.194241977394496,3.609596370029307,0.0,0.0,0.0,0.0,0.0,0.0,0.0,0.0,0.0,0.0,0.0,3.1302727376095776,18.43770486972354,32.100807171017955,37.55038780743268,54.84509016907841,63.64517867776702,72.3326717260692,70.48356881324403,64.63336242781348,54.29618729969451,37.451272085261515,21.667688023837304,4.453665860038907,0.0,0.0,0.0,0.0,0.0,0.0,0.0,0.0,0.0,0.0,0.0,3.303725251409108,18.04064728670587,25.77464708772149,45.7837326167466,52.45759065341949,49.243267783408776,56.601024303062665,69.61174692102651,52.88834758197535,54.00359768784526,40.21580780805951,21.882570909504377,4.491726297352632,0.0,0.0,0.0,0.0,0.0,0.0,0.0,0.0,0.0,0.0,0.0,3.3865859951441974,19.72204639761743,21.585818437323923,53.26915018655696,39.089853204195144,49.00935467908484,43.231502770839235,41.26802031462855,2.1971973290902764,8.868081894098033,0.4359109461087619,21.58106088265971,4.491329834463948,0.0,0.0,0.0,0.0,0.0,0.0,0.0,0.0,0.0,0.0,0.0,3.7136678783090256,7.739946744345891,29.81916324663785,42.08433740243023,29.016920591384476,71.8123141846706,74.29516302505816,73.26753121758757,67.6452909931507,57.77237390768145,22.226502465438305,23.581414387518063,4.899884841253469,0.0,0.0,0.0,0.0,0.0,0.0,0.0,0.0,0.0,0.0,0.0,3.8355802165795527,22.4499093032121,43.94592889624896,60.45266126663394,72.32315661674076,79.28108031315621,81.63428578894388,79.107231336468,72.3542789535025,60.87132607708493,45.45684896502612,24.668515628291345,4.951821479671158,0.0,0.0,0.0,0.0,0.0,0.0,0.0,0.0,0.0,0.0,0.0,3.969782904399303,23.63771211771128,44.94005958962569,60.223703948418574,71.28719908860779,77.11678940382676,78.88144572136208,77.34872019370725,69.89561434932472,58.76908160983463,43.19839811963407,23.30230451388407,5.220226855310659,0.0,0.0,0.0,0.0,0.0,0.0,0.0,0.0,0.0,0.0,0.0,4.342656251207207,22.252272553202804,42.38961382671741,57.99815952278733,69.6107557638048,76.13316497700016,77.77154786448943,75.7141037036605,68.68223967850538,58.13037989616367,43.045165213157446,23.511438687665223,5.096728665485393,0.0,0.0,0.0,0.0,0.0,0.0,0.0,0.0,0.0,0.0,0.0,4.0649339976836165,22.175358752797983,41.61512357367195,55.63464601189386,64.94062116654408,70.12437343609575,72.67204395878323,71.72687643215906,66.42537468466806,56.88548642569389,42.626698634150806,23.606391549505194,5.299519433047587,0.0,0.0,0.0,0.0,0.0,0.0,0.0,0.0,0.0,0.0,0.0,4.2887372983460965,21.953141303690245,41.08168275694677,55.750413175389774,66.58158106280982,72.62427018069674,74.68171434152569,72.61693561725609,66.88328932109881,56.363146569851885,42.191580613819426,23.41628759438091,5.373657993231615,0.0,0.0,0.0,0.0,0.0,0.0,0.0,0.0,0.0,0.0,0.0,3.8534210465703618,16.163791971672786,4.853895146166051,33.107029982499576,36.05453332842553,28.89084539278276,58.46895920310035,52.04645863785352,24.17591048910068,35.128594251902555,22.239585740764895,12.605141082839452,3.7675868311701377,0.0,0.0,0.0,0.0,0.0,0.0,0.0,0.0,0.0,0.0,0.0,4.302018805117032,20.069347888105177,40.10915929100335,53.95721152986914,63.76927156192531,69.03092878910351,70.52717973099934,68.73259046536833,62.9321401724677,53.22395341724691,39.632016204471384,21.92043311537376,5.412114893434024,0.0,0.0,0.0,0.0,0.0,0.0,0.0,0.0,0.0,0.0,0.0,4.645752129606615,21.02521991272384,39.23634624156411,53.1054110135302,63.707621582734845,69.60560174625189,41.52373887783014,69.68211908376804,64.0878294929834,54.19429633730255,40.250894773708104,22.25683187642268,5.33222762136407,0.0,0.0,0.0,0.0,0.0,0.0,0.0,0.0,0.0,0.0,0.0,4.426904615052694,20.6919928547844,39.09659307330278,53.203932041368326,63.55478513914693,49.66014851086067,43.983592870673995,47.397138342248745,21.28054201303675,8.144338890804223,32.317474139684116,9.03360515012387,5.552264524584045,0.0,0.0,0.0,0.0,0.0,0.0,0.0,0.0,0.0,0.0,0.0,4.6661699683738735,23.177022241059728,43.18115198397628,58.03384118276895,68.46220277528539,74.5600002346995,76.2275231445071,74.08662354561004,67.68810898512862,57.18402298087344,42.69746725978102,23.82028327795056,5.650785552422178,0.0,0.0,0.0,0.0,0.0,0.0,0.0,0.0,0.0,0.0,0.0,3.973549301841808,14.80927651248171,31.447039867576983,56.05608606256563,66.28344097051895,71.87416239530542,73.66280471760615,71.8333267177709,65.89807904271748,56.08522608488395,42.0847338653189,23.54315571876,5.635125268319134,0.0,0.0,0.0,0.0,0.0,0.0,0.0,0.0,0.0,0.0,0.0,4.478643022026039,18.206567005620393,41.89621576174937,56.215067680928186,57.39018368298945,70.93077895168031,72.28033862476283,69.98343087916837,56.740381008435314,39.909540226550625,28.480902765882853,18.6749879086013,5.29634772993811,0.0,0.0,0.0,0.0,0.0,0.0,0.0,0.0,0.0,0.0,0.0,1.2052471816013064,4.918122134132962,7.261614269147872,8.971955170933409,10.20317067174356,28.481100997327182,43.27570838292757,36.62504342524273,25.248937297325657,15.45947564992452,3.9491668341877024,0.6069846825761842,0.0,0.0,0.0,0.0,0.0,0.0,0.0,0.0,0.0,0.0,0.0,0.0,4.44117727904534,16.99299410335671,29.569589858210872,39.614770068813606,53.287387479436454,52.64511759976732,30.41266819099876,35.97543898213294,34.89745638779941,7.611492768412067,30.130783077143978,22.521867317508363,5.939014072495912,0.0,0.0,0.0,0.0,0.0,0.0,0.0,0.0,0.0,0.0,0.0,4.830702067178,21.49403727859343,33.75207510238948,22.258219496533076,30.47887749340909,49.55686992835832,23.81175932584384,21.859576061960663,63.883056410977794,54.18894408830533,40.55260303199712,23.000596255595063,5.905116495513375,0.0,0.0,0.0,0.0,0.0,0.0,0.0,0.0,0.0,0.0,0.0,0.0,0.0,0.3732698096965888,6.266888881438109,15.846621660725074,25.761563812394897,35.73577716592308,46.69302025194482,13.342760287237226,4.364065247196178,2.9936912724577187,3.537638355733045,0.987589055713439,0.0,0.0,0.0,0.0,0.0,0.0,0.0,0.0,0.0,0.0,0.0,4.914950431023486,12.488184530677485,29.32080939556126,55.023696700430826,65.02368014172352,70.8056949103003,58.12740642449854,46.108237491134986,45.6483405402608,49.26844317684025,41.74516340116051,23.650398930149187,6.034958091557595,0.0,0.0,0.0,0.0,0.0,0.0,0.0,0.0,0.0,0.0,0.0,5.202187793875507,23.058876300231702,42.160854739946366,56.989359702529285,67.5315061440982,73.92684900147015,76.30939273102048,74.00673627354008,67.4583587411359,51.17007742241612,43.00532069284464,19.52183263883169,5.882716342302692,0.0,0.0,0.0,0.0,0.0,0.0,0.0,0.0,0.0,0.0,0.0,5.424999937316276,23.54077694142789,42.22369410780288,55.8259393556842,65.36503468888098,70.88657333959198,72.99813468472637,71.6067481768876,66.5084336598475,56.74771557187598,42.88202073446372,24.712523008935342,6.5378712658540605,0.0,0.0,0.0,0.0,0.0,0.0,0.0,0.0,0.0,0.0,0.0,5.306853996488252,23.075131278667776,41.5441567165974,55.231245022657234,64.56616196818143,49.36914475056615,71.9701064143671,69.20477776579173,63.738545688052234,54.29242090225201,40.95402170679032,23.648614847150107,6.5285543879699715,0.0,0.0,0.0,0.0,0.0,0.0,0.0,0.0,0.0,0.0,0.0,5.328659455365909,22.07148547596261,40.26278866036865,54.46785573049497,64.65833958980062,70.2585761239155,70.83879956150547,34.08510392888458,61.584761045272934,35.293919276484054,35.638445526751,23.15303623629431,6.66850578767565,0.0,0.0,0.0,0.0,0.0,0.0,0.0,0.0,0.0,0.0,0.0,5.398436923774405,21.838959991749068,39.70000958988079,53.117701363079426,62.52497278578856,60.355924321794895,70.19970138494583,68.51413941370308,50.18803884714427,43.77901802011272,40.495115913137845,23.524323731547476,6.621326703922178,0.0,0.0,0.0,0.0,0.0,0.0,0.0,0.0,0.0,0.0,0.0,5.244014628631737,23.22658010214531,42.4734657276742,43.814699680094336,67.1098678619821,55.93813835318195,50.78967128072321,72.62327902347504,46.49954636226672,56.1641221997322,32.56447051933464,24.54997322457464,6.706367993545033,0.0,0.0,0.0,0.0,0.0,0.0,0.0,0.0,0.0,0.0,0.0,5.302691136157064,22.633075157784404,40.90486030859342,54.418297869409386,64.35841541451069,44.47342276964387,57.67405111128765,69.3540460433815,64.07771968932195,54.625846191635794,41.16850812956871,23.773104194197085,6.814205899267256,0.0,0.0,0.0,0.0,0.0,0.0,0.0,0.0,0.0,0.0,0.0,5.268595327730185,21.891491324499786,39.84987256180359,53.59365506094533,63.888606891419386,70.0107868184876,72.23890825289529,56.36730943018308,63.67887802330522,53.861267510807465,32.44354933828583,23.61788897327705,6.837398978255306,0.0,0.0,0.0,0.0,0.0,0.0,0.0,0.0,0.0,0.0,0.0,5.461672754519604,21.662732237728747,39.04148473177561,52.50021041395309,50.13689513450395,67.67661156135678,19.680417794305544,46.92633866193573,25.9358092519718,38.60458262844514,34.13367063274845,20.819653904940857,6.557694410288294,0.0,0.0,0.0,0.0,0.0,0.0,0.0,0.0,0.0,0.0,0.0,5.36731458701266,22.069304930074846,39.684151074333414,52.92898502806554,62.20482900317571,67.20918181559759,68.68541138161484,67.1497123822949,44.38917440579838,35.374401242887025,39.78267210217154,0.0656146080773079,0.0,0.0,0.0,0.0,0.0,0.0,0.0,0.0,0.0,0.0,0.0,0.0,5.528278519818624,21.49839837036896,38.459278979742216,51.345908713547765,60.672103475520885,65.72224775158584,67.14891945651753,60.57199659612803,49.923201637502935,45.24771479124497,38.626784550211475,19.380295387571273,5.228750807417378,0.0,0.0,0.0,0.0,0.0,0.0,0.0,0.0,0.0,0.0,0.0,5.415683059432187,21.766803746008463,39.13009418739662,52.30594359849762,60.63325011242981,66.03366935064763,40.4227614359529,55.83089514179275,60.58626926012067,51.49834869424701,38.93562914049681,22.90960802264194,7.25546909437326,0.0,0.0,0.0,0.0,0.0,0.0,0.0,0.0,0.0,0.0,0.0,5.597461293894094,16.40682372243647,37.6596133332653,49.99159148580103,58.57005723971493,63.81922588589957,65.7787437132234,56.11753781031176,50.286758106426745,34.09858366709986,23.873211073589957,16.05159297417503,5.378019085007145,0.0,0.0,0.0,0.0,0.0,0.0,0.0,0.0,0.0,0.0,0.0,2.8138953524392343,15.082241211341088,22.811681689136833,37.05064633624569,55.91375588552785,57.95553976225374,61.278889926652745,55.33769530826906,56.08304553899618,45.70007894723414,24.91412438783148,21.03612264216267,5.040034472403489,0.0,0.0,0.0,0.0,0.0,0.0,0.0,0.0,0.0,0.0,0.0,2.90666766839144,7.19322442084977,23.94219561622108,35.85907712430401,44.19748459911936,45.54169202320463,56.191081676162746,58.37797097014723,55.55872336871076,44.764624761382734,32.46713888016256,23.33263392486845,3.285091495640929,0.0,0.0,0.0,0.0,0.0,0.0,0.0,0.0,0.0,0.0,0.0,0.0,10.159956216876935,21.0301756988324,13.42145817064113,23.145503441409303,35.68839985072527,32.729597312471796,67.15387524262609,58.04018458898792,43.44004225028735,16.847492223209446,12.793659186409,4.578948132863253,0.0,0.0,0.0,0.0,0.0,0.0,0.0,0.0,0.0,0.0,0.0,4.873123596267256,21.542009288124277,26.83677116650764,51.81750131963814,36.5289011747367,36.21054147512294,35.21165322708198,49.13622280346392,48.55084534832105,10.916010945598543,11.222080295663083,17.5339677149669,7.470351980040334,0.0,0.0,0.0,0.0,0.0,0.0,0.0,0.0,0.0,0.0,0.0,1.8209540477285528,7.167850795973954,10.468999038606611,28.50568169642564,50.78471549461466,37.19000304161834,55.11884779371514,19.18920027522528,19.914529130073824,13.795322674670745,7.782170041990804,7.1048131966730965,1.2163481424844764,0.0,0.0,0.0,0.0,0.0,0.0,0.0,0.0,0.0,0.0,0.0,5.655939569975078,21.689295251270615,19.119819269705463,34.13010246675029,52.09918820204857,55.38427969768951,57.18104950920829,55.16226048002611,63.73656337360882,54.398276493530815,28.76992421173395,24.312095491363852,7.922121441696482,0.0,0.0,0.0,0.0,0.0,0.0,0.0,0.0,0.0,0.0,0.0,5.43392035231168,23.13182547174968,41.61472711078327,41.121130814370886,65.07383269714212,35.71595402148885,55.43185524433167,70.94663746722769,64.83833374126345,54.83161043086313,41.21885891643166,7.418613573066988,7.090738764124792,0.0,0.0,0.0,0.0,0.0,0.0,0.0,0.0,0.0,0.0,0.0,5.3786137793401725,22.047301239752844,39.94323957208882,53.42654595336476,63.484214744961065,54.5556722603386,70.73096165578325,68.98236208523964,63.46340044330512,40.96195096456401,30.880692631090977,24.271259813829335,6.757313474741009,0.0,0.0,0.0,0.0,0.0,0.0,0.0,0.0,0.0,0.0,0.0,5.227363187306982,22.001113313221083,39.8175608363758,53.22553926880165,63.076254432504555,68.72188596737385,51.08305381834985,69.11636654161505,63.74013153960699,54.593732697652335,41.813553249458614,25.01779943322251,7.77919657032567,0.0,0.0,0.0,0.0,0.0,0.0,0.0,0.0,0.0,0.0,0.0,5.140736046129389,21.20283528685456,38.394259065997936,51.608367145856995,60.533539695925626,65.74563906201824,51.947937610015394,66.13219037848577,61.00751107934811,52.746017404937575,40.45824486449017,24.41755461975397,7.896549585376323,0.0,0.0,0.0,0.0,0.0,0.0,0.0,0.0,0.0,0.0,0.0,5.325091289367745,21.308889109577706,38.82343014299905,52.18482418600446,62.08648483090336,68.08556303103498,52.389399036565734,36.56715984349477,63.45309240819931,54.143350856106586,41.84864021510721,19.14182296002746,5.8601179576476685,0.0,0.0,0.0,0.0,0.0,0.0,0.0,0.0,0.0,0.0,0.0,5.414493670766133,21.952744840801557,40.14345333087457,53.718342639436656,63.660244267537024,69.90869762465132,72.57788402272065,71.0651798709444,65.70182991281858,56.728883584663464,43.79031721244023,26.512662755007952,8.463491516195358,0.0,0.0,0.0,0.0,0.0,0.0,0.0,0.0,0.0,0.0,0.0,5.315179717150629,22.788686841593123,40.889398255934715,54.23632140350313,63.24514762308423,61.62381263980838,33.785576216483335,70.01871607626128,55.42789061544481,55.51848238550926,42.78330147518125,25.069339608751516,7.335158134998872,0.0,0.0,0.0,0.0,0.0,0.0,0.0,0.0,0.0,0.0,0.0,4.08059428178666,9.245118101237129,25.738767196295537,42.67090424623915,61.46602041011188,58.51157896363395,54.63912769840673,42.290299873101894,30.369453736132133,42.18404781893441,25.98378126150264,18.078905955463934,4.031829346478449,0.0,0.0,0.0,0.0,0.0,0.0,0.0,0.0,0.0,0.0,0.0,0.0,5.725122344050549,6.3921711542624555,14.719081205305956,22.54981795116063,26.996545710647556,33.02615155320791,48.57859775052898,41.236105052089435,41.09833419827152,27.3490012186882,23.164731891510502,6.742644347859678,0.0,0.0,0.0,0.0,0.0,0.0,0.0,0.0,0.0,0.0,0.0,0.2957613149587416,5.618275595550037,13.258115460503056,40.44159342316542,46.551086537795726,42.95179820287222,25.606348591474863,57.92897674871187,64.12291645863202,43.561954588557875,39.55966172728643,24.411211213535015,8.510670599948831,0.0,0.0,0.0,0.0,0.0,0.0,0.0,0.0,0.0,0.0,0.0,5.014066153194646,20.848397464370493,38.24479255696383,52.285129296841674,63.13334508847515,52.07639158594921,55.407472776677565,62.40841269651528,59.40917094361598,50.09229305952693,32.61541600053062,16.531114838039105,6.429240434354469,0.0,0.0,0.0,0.0,0.0,0.0,0.0,0.0,0.0,0.0,0.0,4.674495689036251,6.299597069754592,20.24755795656892,25.658879924225577,50.70383706532299,35.567478669676454,39.739854110193605,49.49125532028101,53.58354525728387,34.22584825436763,28.673385498339236,21.60286634153736,7.8354943005188895,0.0,0.0,0.0,0.0,0.0,0.0,0.0,0.0,0.0,0.0,0.0,4.850525211612232,9.577155770510512,39.22108242034975,29.465320118486805,29.35768044420893,47.92264990120024,45.81287263906493,44.09658479394911,27.157509643453515,44.216713049220566,6.131893267840988,24.381674728328004,7.232870709718235,0.0,0.0,0.0,0.0,0.0,0.0,0.0,0.0,0.0,0.0,0.0,3.063072277977531,3.9937689091647233,13.465465551285122,31.17942741771485,30.401765461559933,56.84227197082727,56.602808386061746,69.05213955364815,58.20987070534495,50.84180615058524,35.18330613054103,23.26186529923824,8.495803241623156,0.0319152625391135,0.0,0.0,0.0,0.0,0.0,0.0,0.0,0.0,0.0,0.0,4.076629652899814,18.41907111395536,30.987341148147134,22.4433676655488,31.02381573390613,27.497873033389283,29.54362153900203,23.50985283611049,21.329306948344964,32.903446289160016,35.175773335656025,26.005388488935957,8.28072212451174,0.0786978834039011,0.0,0.0,0.0,0.0,0.0,0.0,0.0,0.0,0.0,0.0,0.0,7.179149988301467,15.615682028066267,28.761598491071577,26.115406940545935,38.34747644513315,45.36387841762957,42.22904635680012,44.37609113047179,38.61231365477449,19.259572437966796,16.52675374626357,0.1520435178105595,0.0,0.0,0.0,0.0,0.0,0.0,0.0,0.0,0.0,0.0,0.0,4.360298849753674,20.90806512911753,38.93642206627418,4.620378504730798,19.116449335151643,53.75580838241736,59.27417533001885,58.10560096562089,63.64616983498872,54.933303161810734,42.39932716749017,25.997062768273576,8.559237303812699,0.0761208746274509,0.0,0.0,0.0,0.0,0.0,0.0,0.0,0.0,0.0,0.0,4.502034332458432,20.69417340067217,38.52865998526203,51.95071285023619,60.89253684162956,66.64501512499936,68.76252341346401,67.81616649817377,63.71773138639631,55.31628631228009,39.81101919871249,22.250686701648068,7.998242316323934,0.029734716651348,0.0,0.0,0.0,0.0,0.0,0.0,0.0,0.0,0.0,0.0,3.872847728115909,20.72410634876786,38.68585752062549,52.09482711027305,61.858122207021005,67.65559902825649,70.01475144737445,67.58562332840366,62.84967589162128,54.29341205947373,39.23515685289805,21.85680082173988,5.846241756543706,0.0,0.0,0.0,0.0,0.0,0.0,0.0,0.0,0.0,0.0,0.0,4.26851769102318,18.561995985326178,29.21079094395127,42.97023372719605,55.65883024810361,58.54389068906176,45.44039575514571,47.52697993829296,26.105495368328825,49.03234952662854,34.18322849383403,18.952313699236203,7.295511846130408,0.0,0.0,0.0,0.0,0.0,0.0,0.0,0.0,0.0,0.0,0.0,0.215477580000102,17.969482198186977,26.7527210341065,37.28436120912529,59.292016160009666,65.11704715200875,67.48155182012394,66.27947634163212,61.89955257888855,43.28601641803336,28.84386454047364,1.035957528132965,1.9692311680966084,0.0,0.0,0.0,0.0,0.0,0.0,0.0,0.0,0.0,0.0,0.0,0.8242463455753672,14.227665454781343,29.985082965552373,44.70911995696688,53.800212225950034,53.75005967053143,59.24027775303632,58.1581322983716,45.969475480095355,39.62428517814203,34.369764282960155,21.745592981463837,8.017272534980796,0.0,0.0,0.0,0.0,0.0,0.0,0.0,0.0,0.0,0.0,0.0,4.465361515255103,19.057772827626312,37.839012790395095,50.90405082410873,59.341574021095255,64.97412228063794,58.68364385732309,40.27448431558484,49.72239318438417,46.2910068828186,31.94975481042911,21.093213298133257,5.493191554170033,0.0,0.0,0.0,0.0,0.0,0.0,0.0,0.0,0.0,0.0,0.0,4.657447784822812,19.23578466464572,36.17862621258382,40.70742179002848,27.916736075284607,55.25899742486517,58.59622379036812,48.05942959779644,55.71909260718369,47.63382668679348,30.65133884998691,9.611648041826076,7.16844549030698,0.0,0.0,0.0,0.0,0.0,0.0,0.0,0.0,0.0,0.0,0.0,4.34285448265155,19.470688926191368,36.84805380012784,50.213214240575745,60.12557938346912,65.86556908584535,44.50276102340653,66.46105634464968,62.423676517729646,54.14711725354909,41.944584234168886,25.823808485918384,8.692250602966395,0.0,0.0,0.0,0.0,0.0,0.0,0.0,0.0,0.0,0.0,0.0,3.7481601496245895,19.787066311361713,37.571202109088624,51.17067211674915,60.58924273178581,66.35876891936904,57.129905796567975,47.84890780390489,20.158353806614876,44.724582009625585,37.31052775977847,17.28697133531637,6.903013586332614,0.0,0.0,0.0,0.0,0.0,0.0,0.0,0.0,0.0,0.0,0.0,3.398876344693422,19.458200345197803,20.20989398214388,39.92678636220841,59.16653565574098,50.15691651038252,40.39679311674405,11.19769782800898,42.93712907599089,48.11235739343584,41.47299162807851,22.104391895723435,8.30807806383098,0.0295364852070057,0.0,0.0,0.0,0.0,0.0,0.0,0.0,0.0,0.0,0.0,4.076233190011129,19.41538235321986,36.882347839999056,50.59639562248945,42.836625733709326,49.02025740852366,59.66171780370809,51.185737706519184,30.875340382093732,4.047093167692808,19.25104848586008,19.102771365492025,7.780980653324751,0.0,0.0,0.0,0.0,0.0,0.0,0.0,0.0,0.0,0.0,0.0,1.8070778466245905,13.844087609978954,25.59980695381156,43.5690909205542,52.3105029217175,50.44990258512048,35.625362251424406,58.13156928482972,49.80069460489938,41.276346035290935,22.903066384978644,19.90164408619157,5.517970484712824,0.0,0.0,0.0,0.0,0.0,0.0,0.0,0.0,0.0,0.0,0.0,3.40561621380106,14.944668588967517,25.43269784623099,33.453538547209945,29.72242630179879,66.10741144794298,53.50365798521391,68.54545998190916,55.39042487246411,44.67581707431738,32.50420816025458,22.01598067154676,8.34574203825602,0.0,0.0,0.0,0.0,0.0,0.0,0.0,0.0,0.0,0.0,0.0,3.547351696505819,17.214616858131425,34.63916081582137,37.54364793832504,61.57504770450016,67.87702355158686,70.11505655821166,61.4346998419058,55.93338079851774,48.219798836269376,34.91965830956575,25.98338479861395,8.748350101715271,0.0,0.0,0.0,0.0,0.0,0.0,0.0,0.0,0.0,0.0,0.0,3.5330790325131725,19.219133223320966,37.33213498721178,30.492159000180024,18.496381377248863,67.08865709743745,12.49274385389736,58.3773762758142,52.69903655262844,45.282801756893555,30.46936238408066,7.821816330859267,5.020806022302284,0.0,0.0,0.0,0.0,0.0,0.0,0.0,0.0,0.0,0.0,0.0,3.7455831408481393,18.742981294010715,36.25950464187549,50.021127971008035,41.78877431891583,39.8264812513712,43.4220031888522,66.8242163506848,61.68704847055357,40.919727666919094,12.424750468487945,16.886345586300543,6.822729851373975,0.0,0.0,0.0,0.0,0.0,0.0,0.0,0.0,0.0,0.0,0.0,3.7630275079502633,18.716021817580156,36.145323329934314,49.76580587069513,58.87117080367092,64.86390559758361,67.0706180360023,65.71491318814519,61.21426647579715,52.802116903686446,40.879288452273265,18.399842663854155,0.3599883029256534,0.0,0.0,0.0,0.0,0.0,0.0,0.0,0.0,0.0,0.0,0.0,3.846482946018381,12.019961859140924,21.7594691825678,32.70025905870913,45.52682466487895,39.129499493063605,53.784551941846985,67.70654450945247,62.84868473439957,19.841381727111507,4.42155236605545,13.513239329371622,6.763656880959963,0.0,0.0,0.0,0.0,0.0,0.0,0.0,0.0,0.0,0.0,0.0,3.822893404141644,8.647450296545031,16.771966042915025,31.356249866068204,29.66890381182637,49.72992597926917,55.40271522201336,57.33210186979715,57.70814691971454,53.85195063292337,41.18852950544728,20.38830228205197,7.940556966020319,0.0,0.0,0.0,0.0,0.0,0.0,0.0,0.0,0.0,0.0,0.0,3.6682728775546343,8.809207155128364,36.95351292851795,39.44924681278776,52.593180961349645,59.247810547921326,57.05219907038578,60.434820436643136,64.42621056847575,40.587689997645704,32.230450535617834,8.024805329865805,6.339441590067398,0.0,0.0,0.0,0.0,0.0,0.0,0.0,0.0,0.0,0.0,0.0,3.4430819567817585,18.738223739346495,37.0774075812319,51.658321469831264,60.77815729824404,67.19887378049178,69.66546764244328,68.850538174752,63.285785069174395,54.15801998298792,27.100815450371613,6.258166697887047,2.3423027463488553,0.0,0.0,0.0,0.0,0.0,0.0,0.0,0.0,0.0,0.0,0.0,2.994285966790746,15.730458034340474,34.208403887265504,33.97508547727459,42.69707079689233,66.62618313778682,69.07057507797197,67.30790107488006,62.0852954422373,53.45429835557268,41.63236970932973,25.41327116468544,8.038483299525424,0.0,0.0,0.0,0.0,0.0,0.0,0.0,0.0,0.0,0.0,0.0,3.2950030678580453,18.45931209715685,36.388751543586686,50.042536966997005,60.11665896847372,66.2657983719725,30.54766380459588,65.42688289951579,38.496348259834235,45.06534186245003,34.41515928371454,23.98897823708587,8.353473064585371,0.0,0.0,0.0,0.0,0.0,0.0,0.0,0.0,0.0,0.0,0.0,3.3421821516115178,17.350207166061573,33.93504272551744,47.34916633271791,56.79628227573987,62.84491833695707,49.28985217282922,63.741519159717384,52.345391655921745,50.32442208085178,38.19444177010087,23.242240386248355,4.479832410692093,0.0,0.0,0.0,0.0,0.0,0.0,0.0,0.0,0.0,0.0,0.0,2.966533564582821,16.83936473399141,33.057472121413994,46.45514251873404,56.55364698786486,62.400483438741574,48.64223004416286,28.991745197953005,58.42851998845452,50.13372343139448,38.267985635951874,22.30559681173089,0.0,0.0,0.0,0.0,0.0,0.0,0.0,0.0,0.0,0.0,0.0,0.0,3.20738476945874,17.31016441430442,19.20565348510569,25.065771442753356,58.9520492329626,65.44175025784146,67.70257988056564,66.5234992496175,61.4117049943621,52.471863317412144,39.894474636780615,20.607149796605892,6.355894799947811,0.0,0.0,0.0,0.0,0.0,0.0,0.0,0.0,0.0,0.0,0.0,2.1849069795410525,11.33011643282965,11.98368550482628,34.07221888500233,47.97676708550569,21.56401297844627,11.846905808230078,26.158423163968227,47.67228358699589,19.380295387571273,1.5563150695315555,9.059771700777056,3.481142394095484,0.0,0.0,0.0,0.0,0.0,0.0,0.0,0.0,0.0,0.0,0.0,3.1294798118322085,17.6192072360341,35.73577716592308,49.66847423152305,59.659339026376,65.89470910816367,68.16941493199178,66.28106219318684,47.0306084016598,52.86000048543441,40.34426178399334,24.17591048910068,7.071312082579244,0.0,0.0,0.0,0.0,0.0,0.0,0.0,0.0,0.0,0.0,0.0,3.0585129547576573,17.20728229469076,34.36817843140541,47.70836170986619,24.00245797530115,48.47908556546913,58.8341015235789,57.621321547092585,43.0388218069385,46.60718603654461,36.62088056491154,17.824575012372744,4.766276847766745,0.0,0.0,0.0,0.0,0.0,0.0,0.0,0.0,0.0,0.0,0.0,2.887637449734578,16.92381132928124,15.08858461756004,8.333055225818113,33.91462488675019,57.513483641370385,53.378177480945226,54.19429633730256,47.96011564418093,40.42751899061711,6.733922164308615,8.148898214024097,4.565666626092318,0.0,0.0,0.0,0.0,0.0,0.0,0.0,0.0,0.0,0.0,0.0,2.7490736701392957,17.054644082547174,34.74224116687937,48.86662803915837,59.36516356297198,65.7936110715491,56.42519301193103,44.14594442359035,51.91681527325364,54.83835029997075,42.104160546864456,23.8785633225872,6.375916175826386,0.0,0.0,0.0,0.0,0.0,0.0,0.0,0.0,0.0,0.0,0.0,2.7803942383453824,16.80249368534374,34.62964570649294,48.72429786212058,13.690656472058,48.002140710381504,68.6439810097473,26.57490742853144,45.28636992289172,37.45702079714744,38.195829390211266,20.05408406689082,5.847629376654102,0.0,0.0,0.0,0.0,0.0,0.0,0.0,0.0,0.0,0.0,0.0,2.715770787489786,16.84769045465379,34.94780717466236,49.43614697875385,33.32211109961099,12.594833047733651,22.104391895723435,21.794357916772046,37.00842303860078,40.41701272406697,38.01206884130594,23.381993554509688,7.185493394520421,0.0,0.0,0.0,0.0,0.0,0.0,0.0,0.0,0.0,0.0,0.0,1.909761734793912,5.071949734942603,12.397592760613044,42.66674138590797,21.336245048896945,46.308253018476385,47.38504622414386,51.48903181636291,7.751245936673402,9.667747540574954,4.939927593010618,9.48537461178002,3.8181358494774287,0.0,0.0,0.0,0.0,0.0,0.0,0.0,0.0,0.0,0.0,0.0,2.4761089712799205,14.598754718590166,16.397903307441066,4.071475635346913,47.046070454318496,35.79148020178327,59.73962276133463,61.081054945199114,44.227219315770704,42.74960212964305,34.408419414606904,22.530985963948105,6.920061490546054,0.0,0.0,0.0,0.0,0.0,0.0,0.0,0.0,0.0,0.0,0.0,1.269474169568218,8.249203324861309,28.878158580344856,26.356258145421855,41.05531797484924,51.78499136276601,21.27142336659701,19.059358679181056,24.44054946729768,43.78397380622128,41.23392450620167,24.101573697472308,7.201351910067807,0.0,0.0,0.0,0.0,0.0,0.0,0.0,0.0,0.0,0.0,0.0,2.2723270464960157,16.67185916352215,35.14901209066981,49.20282856876294,59.01667268381819,50.7446727428575,67.44289668847718,45.947670021217704,34.61200310794647,41.02201509219973,39.88377013878613,23.490029691676256,6.270655278880613,0.0,0.0,0.0,0.0,0.0,0.0,0.0,0.0,0.0,0.0,0.0,2.269750037719566,16.713091303945355,35.23544100040306,49.6982089481744,60.077409142493934,50.0621618799869,49.601273771891,30.800408896132335,20.963569933533385,25.147839260711077,34.300977971773364,23.239861608916247,6.8387865983657035,0.0,0.0,0.0,0.0,0.0,0.0,0.0,0.0,0.0,0.0,0.0,2.293736042484986,16.287884855831077,34.32040465331891,48.78555137842236,59.74675909333095,65.91889334437342,46.9031
...